BEGIN OPTIONS
END OPTIONS

BEGIN GRIDDATA
  STRT LAYERED
  CONSTANT 150.
END GRIDDATA