BEGIN OPTIONS
  SAVE_FLOWS
END OPTIONS

BEGIN DIMENSIONS
  MAXBOUND 5
END DIMENSIONS

BEGIN PERIOD 1
  1 1328  150.
  1 1546  150.
  1 1644  150.
  1 1688  150.
  1 1714  150.
END PERIOD
