# Example 1: MODPATH basic data file
0                 DEFAULT IFACE COUNT
CONSTANT 0.1      POROSITY Layer 1
