BEGIN OPTIONS
  BUDGET FILEOUT mptest006_mf6.bud
  HEAD FILEOUT mptest006_mf6.hed
END OPTIONS

BEGIN PERIOD 1
  SAVE BUDGET ALL
  PRINT BUDGET ALL
  SAVE HEAD ALL
  PRINT HEAD ALL
END PERIOD
