BEGIN OPTIONS
  SAVE_FLOWS
  XT3D
END OPTIONS

BEGIN GRIDDATA
  ICELLTYPE LAYERED
    CONSTANT 0
  K LAYERED
    CONSTANT 50.
END GRIDDATA
