BEGIN OPTIONS
  LENGTH_UNITS FEET
  XORIGIN 0
  YORIGIN 0
  ANGROT 0
END OPTIONS

BEGIN DIMENSIONS
  NLAY 1
  NCPL 1974
  NVERT 2101
END DIMENSIONS

BEGIN GRIDDATA
TOP
  CONSTANT 100
BOTM LAYERED
  CONSTANT 0
IDOMAIN
  OPEN/CLOSE  mptest006_idomain.csv
END GRIDDATA

BEGIN VERTICES
1  0  10500
2  500  10500
3  500  10000
4  0  10000
5  1000  10500
6  1000  10000
7  1500  10500
8  1500  10000
9  2000  10500
10  2000  10000
11  2500  10500
12  2500  10000
13  3000  10500
14  3000  10000
15  3500  10500
16  3500  10000
17  4000  10500
18  4000  10000
19  4500  10500
20  4500  10000
21  5000  10500
22  5000  10000
23  5500  10500
24  5500  10000
25  6000  10500
26  6000  10000
27  6500  10500
28  6500  10000
29  7000  10500
30  7000  10000
31  7500  10500
32  7500  10000
33  8000  10500
34  8000  10000
35  8500  10500
36  8500  10000
37  9000  10500
38  9000  10000
39  9500  10500
40  9500  10000
41  10000  10500
42  10000  10000
43  10500  10500
44  10500  10000
45  11000  10500
46  11000  10000
47  11500  10500
48  11500  10000
49  12000  10500
50  12000  10000
51  12500  10500
52  12500  10000
53  13000  10500
54  13000  10000
55  500  9500
56  0  9500
57  1000  9500
58  1500  9500
59  2000  9500
60  2500  9500
61  3000  9500
62  3250  10000
63  3250  9750
64  3000  9750
65  3500  9750
66  3250  9500
67  3500  9500
68  3750  10000
69  3750  9750
70  4000  9750
71  3750  9500
72  4000  9500
73  4250  10000
74  4250  9750
75  4500  9750
76  4250  9500
77  4500  9500
78  4750  10000
79  4750  9750
80  5000  9750
81  4750  9500
82  5000  9500
83  5250  10000
84  5250  9750
85  5500  9750
86  5250  9500
87  5500  9500
88  5750  10000
89  5750  9750
90  6000  9750
91  5750  9500
92  6000  9500
93  6500  9500
94  7000  9500
95  7500  9500
96  8000  9500
97  8500  9500
98  9000  9500
99  9500  9500
100  10000  9500
101  10500  9500
102  11000  9500
103  11500  9500
104  12000  9500
105  12500  9500
106  13000  9500
107  500  9000
108  0  9000
109  1000  9000
110  1500  9000
111  2000  9000
112  2500  9000
113  2750  9500
114  2750  9250
115  2500  9250
116  3000  9250
117  2750  9000
118  3000  9000
119  3250  9250
120  3500  9250
121  3250  9000
122  3500  9000
123  3625  9500
124  3625  9375
125  3500  9375
126  3750  9375
127  3875  9500
128  3875  9375
129  4000  9375
130  3625  9250
131  3750  9250
132  3875  9250
133  4000  9250
134  3625  9125
135  3500  9125
136  3750  9125
137  3875  9125
138  4000  9125
139  3625  9000
140  3750  9000
141  3875  9000
142  4000  9000
143  4125  9500
144  4125  9375
145  4250  9375
146  4375  9500
147  4375  9375
148  4500  9375
149  4125  9250
150  4250  9250
151  4375  9250
152  4500  9250
153  4125  9125
154  4250  9125
155  4375  9125
156  4500  9125
157  4125  9000
158  4250  9000
159  4375  9000
160  4500  9000
161  4625  9500
162  4625  9375
163  4750  9375
164  4875  9500
165  4875  9375
166  5000  9375
167  4625  9250
168  4750  9250
169  4875  9250
170  5000  9250
171  4625  9125
172  4750  9125
173  4875  9125
174  5000  9125
175  4625  9000
176  4750  9000
177  4875  9000
178  5000  9000
179  5125  9500
180  5125  9375
181  5250  9375
182  5375  9500
183  5375  9375
184  5500  9375
185  5125  9250
186  5250  9250
187  5375  9250
188  5500  9250
189  5125  9125
190  5250  9125
191  5375  9125
192  5500  9125
193  5125  9000
194  5250  9000
195  5375  9000
196  5500  9000
197  5750  9250
198  6000  9250
199  5750  9000
200  6000  9000
201  6250  9500
202  6250  9250
203  6500  9250
204  6250  9000
205  6500  9000
206  7000  9000
207  7500  9000
208  8000  9000
209  8500  9000
210  9000  9000
211  9500  9000
212  10000  9000
213  10500  9000
214  11000  9000
215  11500  9000
216  12000  9000
217  12500  9000
218  13000  9000
219  500  8500
220  0  8500
221  1000  8500
222  1500  8500
223  2000  8500
224  2500  8500
225  2750  8750
226  2500  8750
227  3000  8750
228  2750  8500
229  3000  8500
230  3125  9000
231  3125  8875
232  3000  8875
233  3250  8875
234  3375  9000
235  3375  8875
236  3500  8875
237  3125  8750
238  3250  8750
239  3375  8750
240  3500  8750
241  3125  8625
242  3000  8625
243  3250  8625
244  3375  8625
245  3500  8625
246  3125  8500
247  3250  8500
248  3375  8500
249  3500  8500
250  3625  8875
251  3750  8875
252  3875  8875
253  4000  8875
254  3625  8750
255  3750  8750
256  3875  8750
257  4000  8750
258  3625  8625
259  3750  8625
260  3875  8625
261  4000  8625
262  3625  8500
263  3750  8500
264  3875  8500
265  4000  8500
266  4062.5  9000
267  4062.5  8937.5
268  4000  8937.5
269  4125  8937.5
270  4187.5  9000
271  4187.5  8937.5
272  4250  8937.5
273  4312.5  9000
274  4312.5  8937.5
275  4375  8937.5
276  4437.5  9000
277  4437.5  8937.5
278  4500  8937.5
279  4062.5  8875
280  4125  8875
281  4187.5  8875
282  4250  8875
283  4312.5  8875
284  4375  8875
285  4437.5  8875
286  4500  8875
287  4062.5  8812.5
288  4000  8812.5
289  4125  8812.5
290  4187.5  8812.5
291  4250  8812.5
292  4312.5  8812.5
293  4375  8812.5
294  4437.5  8812.5
295  4500  8812.5
296  4062.5  8750
297  4125  8750
298  4187.5  8750
299  4250  8750
300  4312.5  8750
301  4375  8750
302  4437.5  8750
303  4500  8750
304  4062.5  8687.5
305  4000  8687.5
306  4125  8687.5
307  4187.5  8687.5
308  4250  8687.5
309  4312.5  8687.5
310  4375  8687.5
311  4437.5  8687.5
312  4500  8687.5
313  4062.5  8625
314  4125  8625
315  4187.5  8625
316  4250  8625
317  4312.5  8625
318  4375  8625
319  4437.5  8625
320  4500  8625
321  4062.5  8562.5
322  4000  8562.5
323  4125  8562.5
324  4187.5  8562.5
325  4250  8562.5
326  4312.5  8562.5
327  4375  8562.5
328  4437.5  8562.5
329  4500  8562.5
330  4062.5  8500
331  4125  8500
332  4187.5  8500
333  4250  8500
334  4312.5  8500
335  4375  8500
336  4437.5  8500
337  4500  8500
338  4562.5  9000
339  4562.5  8937.5
340  4625  8937.5
341  4687.5  9000
342  4687.5  8937.5
343  4750  8937.5
344  4812.5  9000
345  4812.5  8937.5
346  4875  8937.5
347  4937.5  9000
348  4937.5  8937.5
349  5000  8937.5
350  4562.5  8875
351  4625  8875
352  4687.5  8875
353  4750  8875
354  4812.5  8875
355  4875  8875
356  4937.5  8875
357  5000  8875
358  4562.5  8812.5
359  4625  8812.5
360  4687.5  8812.5
361  4750  8812.5
362  4812.5  8812.5
363  4875  8812.5
364  4937.5  8812.5
365  5000  8812.5
366  4562.5  8750
367  4625  8750
368  4687.5  8750
369  4750  8750
370  4812.5  8750
371  4875  8750
372  4937.5  8750
373  5000  8750
374  4562.5  8687.5
375  4625  8687.5
376  4687.5  8687.5
377  4750  8687.5
378  4812.5  8687.5
379  4875  8687.5
380  4937.5  8687.5
381  5000  8687.5
382  4562.5  8625
383  4625  8625
384  4687.5  8625
385  4750  8625
386  4812.5  8625
387  4875  8625
388  4937.5  8625
389  5000  8625
390  4562.5  8562.5
391  4625  8562.5
392  4687.5  8562.5
393  4750  8562.5
394  4812.5  8562.5
395  4875  8562.5
396  4937.5  8562.5
397  5000  8562.5
398  4562.5  8500
399  4625  8500
400  4687.5  8500
401  4750  8500
402  4812.5  8500
403  4875  8500
404  4937.5  8500
405  5000  8500
406  5125  8875
407  5250  8875
408  5375  8875
409  5500  8875
410  5125  8750
411  5250  8750
412  5375  8750
413  5500  8750
414  5125  8625
415  5250  8625
416  5375  8625
417  5500  8625
418  5125  8500
419  5250  8500
420  5375  8500
421  5500  8500
422  5625  9000
423  5625  8875
424  5750  8875
425  5875  9000
426  5875  8875
427  6000  8875
428  5625  8750
429  5750  8750
430  5875  8750
431  6000  8750
432  5625  8625
433  5750  8625
434  5875  8625
435  6000  8625
436  5625  8500
437  5750  8500
438  5875  8500
439  6000  8500
440  6250  8750
441  6500  8750
442  6250  8500
443  6500  8500
444  7000  8500
445  7500  8500
446  8000  8500
447  8500  8500
448  9000  8500
449  9500  8500
450  10000  8500
451  10500  8500
452  11000  8500
453  11500  8500
454  12000  8500
455  12500  8500
456  13000  8500
457  500  8000
458  0  8000
459  1000  8000
460  1500  8000
461  2000  8000
462  2500  8000
463  2750  8250
464  2500  8250
465  3000  8250
466  2750  8000
467  3000  8000
468  3125  8375
469  3000  8375
470  3250  8375
471  3375  8375
472  3500  8375
473  3125  8250
474  3250  8250
475  3375  8250
476  3500  8250
477  3125  8125
478  3000  8125
479  3250  8125
480  3375  8125
481  3500  8125
482  3125  8000
483  3250  8000
484  3375  8000
485  3500  8000
486  3562.5  8500
487  3562.5  8437.5
488  3500  8437.5
489  3625  8437.5
490  3687.5  8500
491  3687.5  8437.5
492  3750  8437.5
493  3812.5  8500
494  3812.5  8437.5
495  3875  8437.5
496  3937.5  8500
497  3937.5  8437.5
498  4000  8437.5
499  3562.5  8375
500  3625  8375
501  3687.5  8375
502  3750  8375
503  3812.5  8375
504  3875  8375
505  3937.5  8375
506  4000  8375
507  3562.5  8312.5
508  3500  8312.5
509  3625  8312.5
510  3687.5  8312.5
511  3750  8312.5
512  3812.5  8312.5
513  3875  8312.5
514  3937.5  8312.5
515  4000  8312.5
516  3562.5  8250
517  3625  8250
518  3687.5  8250
519  3750  8250
520  3812.5  8250
521  3875  8250
522  3937.5  8250
523  4000  8250
524  3562.5  8187.5
525  3500  8187.5
526  3625  8187.5
527  3687.5  8187.5
528  3750  8187.5
529  3812.5  8187.5
530  3875  8187.5
531  3937.5  8187.5
532  4000  8187.5
533  3562.5  8125
534  3625  8125
535  3687.5  8125
536  3750  8125
537  3812.5  8125
538  3875  8125
539  3937.5  8125
540  4000  8125
541  3562.5  8062.5
542  3500  8062.5
543  3625  8062.5
544  3687.5  8062.5
545  3750  8062.5
546  3812.5  8062.5
547  3875  8062.5
548  3937.5  8062.5
549  4000  8062.5
550  3562.5  8000
551  3625  8000
552  3687.5  8000
553  3750  8000
554  3812.5  8000
555  3875  8000
556  3937.5  8000
557  4000  8000
558  4062.5  8437.5
559  4125  8437.5
560  4187.5  8437.5
561  4250  8437.5
562  4312.5  8437.5
563  4375  8437.5
564  4437.5  8437.5
565  4500  8437.5
566  4062.5  8375
567  4125  8375
568  4187.5  8375
569  4250  8375
570  4312.5  8375
571  4375  8375
572  4437.5  8375
573  4500  8375
574  4062.5  8312.5
575  4125  8312.5
576  4187.5  8312.5
577  4250  8312.5
578  4312.5  8312.5
579  4375  8312.5
580  4437.5  8312.5
581  4500  8312.5
582  4062.5  8250
583  4125  8250
584  4187.5  8250
585  4250  8250
586  4312.5  8250
587  4375  8250
588  4437.5  8250
589  4500  8250
590  4062.5  8187.5
591  4125  8187.5
592  4187.5  8187.5
593  4250  8187.5
594  4312.5  8187.5
595  4375  8187.5
596  4437.5  8187.5
597  4500  8187.5
598  4062.5  8125
599  4125  8125
600  4187.5  8125
601  4250  8125
602  4312.5  8125
603  4375  8125
604  4437.5  8125
605  4500  8125
606  4062.5  8062.5
607  4125  8062.5
608  4187.5  8062.5
609  4250  8062.5
610  4312.5  8062.5
611  4375  8062.5
612  4437.5  8062.5
613  4500  8062.5
614  4062.5  8000
615  4125  8000
616  4187.5  8000
617  4250  8000
618  4312.5  8000
619  4375  8000
620  4437.5  8000
621  4500  8000
622  4562.5  8437.5
623  4625  8437.5
624  4687.5  8437.5
625  4750  8437.5
626  4812.5  8437.5
627  4875  8437.5
628  4937.5  8437.5
629  5000  8437.5
630  4562.5  8375
631  4625  8375
632  4687.5  8375
633  4750  8375
634  4812.5  8375
635  4875  8375
636  4937.5  8375
637  5000  8375
638  4562.5  8312.5
639  4625  8312.5
640  4687.5  8312.5
641  4750  8312.5
642  4812.5  8312.5
643  4875  8312.5
644  4937.5  8312.5
645  5000  8312.5
646  4562.5  8250
647  4625  8250
648  4687.5  8250
649  4750  8250
650  4812.5  8250
651  4875  8250
652  4937.5  8250
653  5000  8250
654  4562.5  8187.5
655  4625  8187.5
656  4687.5  8187.5
657  4750  8187.5
658  4812.5  8187.5
659  4875  8187.5
660  4937.5  8187.5
661  5000  8187.5
662  4562.5  8125
663  4625  8125
664  4687.5  8125
665  4750  8125
666  4812.5  8125
667  4875  8125
668  4937.5  8125
669  5000  8125
670  4562.5  8062.5
671  4625  8062.5
672  4687.5  8062.5
673  4750  8062.5
674  4812.5  8062.5
675  4875  8062.5
676  4937.5  8062.5
677  5000  8062.5
678  4562.5  8000
679  4625  8000
680  4687.5  8000
681  4750  8000
682  4812.5  8000
683  4875  8000
684  4937.5  8000
685  5000  8000
686  5062.5  8500
687  5062.5  8437.5
688  5125  8437.5
689  5187.5  8500
690  5187.5  8437.5
691  5250  8437.5
692  5312.5  8500
693  5312.5  8437.5
694  5375  8437.5
695  5437.5  8500
696  5437.5  8437.5
697  5500  8437.5
698  5062.5  8375
699  5125  8375
700  5187.5  8375
701  5250  8375
702  5312.5  8375
703  5375  8375
704  5437.5  8375
705  5500  8375
706  5062.5  8312.5
707  5125  8312.5
708  5187.5  8312.5
709  5250  8312.5
710  5312.5  8312.5
711  5375  8312.5
712  5437.5  8312.5
713  5500  8312.5
714  5062.5  8250
715  5125  8250
716  5187.5  8250
717  5250  8250
718  5312.5  8250
719  5375  8250
720  5437.5  8250
721  5500  8250
722  5062.5  8187.5
723  5125  8187.5
724  5187.5  8187.5
725  5250  8187.5
726  5312.5  8187.5
727  5375  8187.5
728  5437.5  8187.5
729  5500  8187.5
730  5062.5  8125
731  5125  8125
732  5187.5  8125
733  5250  8125
734  5312.5  8125
735  5375  8125
736  5437.5  8125
737  5500  8125
738  5062.5  8062.5
739  5125  8062.5
740  5187.5  8062.5
741  5250  8062.5
742  5312.5  8062.5
743  5375  8062.5
744  5437.5  8062.5
745  5500  8062.5
746  5062.5  8000
747  5125  8000
748  5187.5  8000
749  5250  8000
750  5312.5  8000
751  5375  8000
752  5437.5  8000
753  5500  8000
754  5625  8375
755  5750  8375
756  5875  8375
757  6000  8375
758  5625  8250
759  5750  8250
760  5875  8250
761  6000  8250
762  5625  8125
763  5750  8125
764  5875  8125
765  6000  8125
766  5625  8000
767  5750  8000
768  5875  8000
769  6000  8000
770  6250  8250
771  6500  8250
772  6250  8000
773  6500  8000
774  7000  8000
775  7500  8000
776  8000  8000
777  8500  8000
778  9000  8000
779  9500  8000
780  10000  8000
781  10500  8000
782  11000  8000
783  11500  8000
784  12000  8000
785  12500  8000
786  13000  8000
787  500  7500
788  0  7500
789  1000  7500
790  1500  7500
791  2000  7500
792  2500  7500
793  2750  7750
794  2500  7750
795  3000  7750
796  2750  7500
797  3000  7500
798  3125  7875
799  3000  7875
800  3250  7875
801  3375  7875
802  3500  7875
803  3125  7750
804  3250  7750
805  3375  7750
806  3500  7750
807  3125  7625
808  3000  7625
809  3250  7625
810  3375  7625
811  3500  7625
812  3125  7500
813  3250  7500
814  3375  7500
815  3500  7500
816  3562.5  7937.5
817  3500  7937.5
818  3625  7937.5
819  3687.5  7937.5
820  3750  7937.5
821  3812.5  7937.5
822  3875  7937.5
823  3937.5  7937.5
824  4000  7937.5
825  3562.5  7875
826  3625  7875
827  3687.5  7875
828  3750  7875
829  3812.5  7875
830  3875  7875
831  3937.5  7875
832  4000  7875
833  3562.5  7812.5
834  3500  7812.5
835  3625  7812.5
836  3687.5  7812.5
837  3750  7812.5
838  3812.5  7812.5
839  3875  7812.5
840  3937.5  7812.5
841  4000  7812.5
842  3562.5  7750
843  3625  7750
844  3687.5  7750
845  3750  7750
846  3812.5  7750
847  3875  7750
848  3937.5  7750
849  4000  7750
850  3562.5  7687.5
851  3500  7687.5
852  3625  7687.5
853  3687.5  7687.5
854  3750  7687.5
855  3812.5  7687.5
856  3875  7687.5
857  3937.5  7687.5
858  4000  7687.5
859  3562.5  7625
860  3625  7625
861  3687.5  7625
862  3750  7625
863  3812.5  7625
864  3875  7625
865  3937.5  7625
866  4000  7625
867  3562.5  7562.5
868  3500  7562.5
869  3625  7562.5
870  3687.5  7562.5
871  3750  7562.5
872  3812.5  7562.5
873  3875  7562.5
874  3937.5  7562.5
875  4000  7562.5
876  3562.5  7500
877  3625  7500
878  3687.5  7500
879  3750  7500
880  3812.5  7500
881  3875  7500
882  3937.5  7500
883  4000  7500
884  4062.5  7937.5
885  4125  7937.5
886  4187.5  7937.5
887  4250  7937.5
888  4312.5  7937.5
889  4375  7937.5
890  4437.5  7937.5
891  4500  7937.5
892  4062.5  7875
893  4125  7875
894  4187.5  7875
895  4250  7875
896  4312.5  7875
897  4375  7875
898  4437.5  7875
899  4500  7875
900  4062.5  7812.5
901  4125  7812.5
902  4187.5  7812.5
903  4250  7812.5
904  4312.5  7812.5
905  4375  7812.5
906  4437.5  7812.5
907  4500  7812.5
908  4062.5  7750
909  4125  7750
910  4187.5  7750
911  4250  7750
912  4312.5  7750
913  4375  7750
914  4437.5  7750
915  4500  7750
916  4062.5  7687.5
917  4125  7687.5
918  4187.5  7687.5
919  4250  7687.5
920  4312.5  7687.5
921  4375  7687.5
922  4437.5  7687.5
923  4500  7687.5
924  4062.5  7625
925  4125  7625
926  4187.5  7625
927  4250  7625
928  4312.5  7625
929  4375  7625
930  4437.5  7625
931  4500  7625
932  4062.5  7562.5
933  4125  7562.5
934  4187.5  7562.5
935  4250  7562.5
936  4312.5  7562.5
937  4375  7562.5
938  4437.5  7562.5
939  4500  7562.5
940  4062.5  7500
941  4125  7500
942  4187.5  7500
943  4250  7500
944  4312.5  7500
945  4375  7500
946  4437.5  7500
947  4500  7500
948  4562.5  7937.5
949  4625  7937.5
950  4687.5  7937.5
951  4750  7937.5
952  4812.5  7937.5
953  4875  7937.5
954  4937.5  7937.5
955  5000  7937.5
956  4562.5  7875
957  4625  7875
958  4687.5  7875
959  4750  7875
960  4812.5  7875
961  4875  7875
962  4937.5  7875
963  5000  7875
964  4562.5  7812.5
965  4625  7812.5
966  4687.5  7812.5
967  4750  7812.5
968  4812.5  7812.5
969  4875  7812.5
970  4937.5  7812.5
971  5000  7812.5
972  4562.5  7750
973  4625  7750
974  4687.5  7750
975  4750  7750
976  4812.5  7750
977  4875  7750
978  4937.5  7750
979  5000  7750
980  4562.5  7687.5
981  4625  7687.5
982  4687.5  7687.5
983  4750  7687.5
984  4812.5  7687.5
985  4875  7687.5
986  4937.5  7687.5
987  5000  7687.5
988  4562.5  7625
989  4625  7625
990  4687.5  7625
991  4750  7625
992  4812.5  7625
993  4875  7625
994  4937.5  7625
995  5000  7625
996  4562.5  7562.5
997  4625  7562.5
998  4687.5  7562.5
999  4750  7562.5
1000  4812.5  7562.5
1001  4875  7562.5
1002  4937.5  7562.5
1003  5000  7562.5
1004  4562.5  7500
1005  4625  7500
1006  4687.5  7500
1007  4750  7500
1008  4812.5  7500
1009  4875  7500
1010  4937.5  7500
1011  5000  7500
1012  5062.5  7937.5
1013  5125  7937.5
1014  5187.5  7937.5
1015  5250  7937.5
1016  5312.5  7937.5
1017  5375  7937.5
1018  5437.5  7937.5
1019  5500  7937.5
1020  5062.5  7875
1021  5125  7875
1022  5187.5  7875
1023  5250  7875
1024  5312.5  7875
1025  5375  7875
1026  5437.5  7875
1027  5500  7875
1028  5062.5  7812.5
1029  5125  7812.5
1030  5187.5  7812.5
1031  5250  7812.5
1032  5312.5  7812.5
1033  5375  7812.5
1034  5437.5  7812.5
1035  5500  7812.5
1036  5062.5  7750
1037  5125  7750
1038  5187.5  7750
1039  5250  7750
1040  5312.5  7750
1041  5375  7750
1042  5437.5  7750
1043  5500  7750
1044  5062.5  7687.5
1045  5125  7687.5
1046  5187.5  7687.5
1047  5250  7687.5
1048  5312.5  7687.5
1049  5375  7687.5
1050  5437.5  7687.5
1051  5500  7687.5
1052  5062.5  7625
1053  5125  7625
1054  5187.5  7625
1055  5250  7625
1056  5312.5  7625
1057  5375  7625
1058  5437.5  7625
1059  5500  7625
1060  5062.5  7562.5
1061  5125  7562.5
1062  5187.5  7562.5
1063  5250  7562.5
1064  5312.5  7562.5
1065  5375  7562.5
1066  5437.5  7562.5
1067  5500  7562.5
1068  5062.5  7500
1069  5125  7500
1070  5187.5  7500
1071  5250  7500
1072  5312.5  7500
1073  5375  7500
1074  5437.5  7500
1075  5500  7500
1076  5625  7875
1077  5750  7875
1078  5875  7875
1079  6000  7875
1080  5625  7750
1081  5750  7750
1082  5875  7750
1083  6000  7750
1084  5625  7625
1085  5750  7625
1086  5875  7625
1087  6000  7625
1088  5625  7500
1089  5750  7500
1090  5875  7500
1091  6000  7500
1092  6250  7750
1093  6500  7750
1094  6250  7500
1095  6500  7500
1096  7000  7500
1097  7500  7500
1098  8000  7500
1099  8500  7500
1100  9000  7500
1101  9500  7500
1102  10000  7500
1103  10500  7500
1104  11000  7500
1105  11500  7500
1106  12000  7500
1107  12500  7500
1108  13000  7500
1109  500  7000
1110  0  7000
1111  1000  7000
1112  1500  7000
1113  2000  7000
1114  2500  7000
1115  2750  7250
1116  2500  7250
1117  3000  7250
1118  2750  7000
1119  3000  7000
1120  3125  7375
1121  3000  7375
1122  3250  7375
1123  3375  7375
1124  3500  7375
1125  3125  7250
1126  3250  7250
1127  3375  7250
1128  3500  7250
1129  3125  7125
1130  3000  7125
1131  3250  7125
1132  3375  7125
1133  3500  7125
1134  3125  7000
1135  3250  7000
1136  3375  7000
1137  3500  7000
1138  3562.5  7437.5
1139  3500  7437.5
1140  3625  7437.5
1141  3687.5  7437.5
1142  3750  7437.5
1143  3812.5  7437.5
1144  3875  7437.5
1145  3937.5  7437.5
1146  4000  7437.5
1147  3562.5  7375
1148  3625  7375
1149  3687.5  7375
1150  3750  7375
1151  3812.5  7375
1152  3875  7375
1153  3937.5  7375
1154  4000  7375
1155  3562.5  7312.5
1156  3500  7312.5
1157  3625  7312.5
1158  3687.5  7312.5
1159  3750  7312.5
1160  3812.5  7312.5
1161  3875  7312.5
1162  3937.5  7312.5
1163  4000  7312.5
1164  3562.5  7250
1165  3625  7250
1166  3687.5  7250
1167  3750  7250
1168  3812.5  7250
1169  3875  7250
1170  3937.5  7250
1171  4000  7250
1172  3562.5  7187.5
1173  3500  7187.5
1174  3625  7187.5
1175  3687.5  7187.5
1176  3750  7187.5
1177  3812.5  7187.5
1178  3875  7187.5
1179  3937.5  7187.5
1180  4000  7187.5
1181  3562.5  7125
1182  3625  7125
1183  3687.5  7125
1184  3750  7125
1185  3812.5  7125
1186  3875  7125
1187  3937.5  7125
1188  4000  7125
1189  3562.5  7062.5
1190  3500  7062.5
1191  3625  7062.5
1192  3687.5  7062.5
1193  3750  7062.5
1194  3812.5  7062.5
1195  3875  7062.5
1196  3937.5  7062.5
1197  4000  7062.5
1198  3562.5  7000
1199  3625  7000
1200  3687.5  7000
1201  3750  7000
1202  3812.5  7000
1203  3875  7000
1204  3937.5  7000
1205  4000  7000
1206  4062.5  7437.5
1207  4125  7437.5
1208  4187.5  7437.5
1209  4250  7437.5
1210  4312.5  7437.5
1211  4375  7437.5
1212  4437.5  7437.5
1213  4500  7437.5
1214  4062.5  7375
1215  4125  7375
1216  4187.5  7375
1217  4250  7375
1218  4312.5  7375
1219  4375  7375
1220  4437.5  7375
1221  4500  7375
1222  4062.5  7312.5
1223  4125  7312.5
1224  4187.5  7312.5
1225  4250  7312.5
1226  4312.5  7312.5
1227  4375  7312.5
1228  4437.5  7312.5
1229  4500  7312.5
1230  4062.5  7250
1231  4125  7250
1232  4187.5  7250
1233  4250  7250
1234  4312.5  7250
1235  4375  7250
1236  4437.5  7250
1237  4500  7250
1238  4062.5  7187.5
1239  4125  7187.5
1240  4187.5  7187.5
1241  4250  7187.5
1242  4312.5  7187.5
1243  4375  7187.5
1244  4437.5  7187.5
1245  4500  7187.5
1246  4062.5  7125
1247  4125  7125
1248  4187.5  7125
1249  4250  7125
1250  4312.5  7125
1251  4375  7125
1252  4437.5  7125
1253  4500  7125
1254  4062.5  7062.5
1255  4125  7062.5
1256  4187.5  7062.5
1257  4250  7062.5
1258  4312.5  7062.5
1259  4375  7062.5
1260  4437.5  7062.5
1261  4500  7062.5
1262  4062.5  7000
1263  4125  7000
1264  4187.5  7000
1265  4250  7000
1266  4312.5  7000
1267  4375  7000
1268  4437.5  7000
1269  4500  7000
1270  4562.5  7437.5
1271  4625  7437.5
1272  4687.5  7437.5
1273  4750  7437.5
1274  4812.5  7437.5
1275  4875  7437.5
1276  4937.5  7437.5
1277  5000  7437.5
1278  4562.5  7375
1279  4625  7375
1280  4687.5  7375
1281  4750  7375
1282  4812.5  7375
1283  4875  7375
1284  4937.5  7375
1285  5000  7375
1286  4562.5  7312.5
1287  4625  7312.5
1288  4687.5  7312.5
1289  4750  7312.5
1290  4812.5  7312.5
1291  4875  7312.5
1292  4937.5  7312.5
1293  5000  7312.5
1294  4562.5  7250
1295  4625  7250
1296  4687.5  7250
1297  4750  7250
1298  4812.5  7250
1299  4875  7250
1300  4937.5  7250
1301  5000  7250
1302  4562.5  7187.5
1303  4625  7187.5
1304  4687.5  7187.5
1305  4750  7187.5
1306  4812.5  7187.5
1307  4875  7187.5
1308  4937.5  7187.5
1309  5000  7187.5
1310  4562.5  7125
1311  4625  7125
1312  4687.5  7125
1313  4750  7125
1314  4812.5  7125
1315  4875  7125
1316  4937.5  7125
1317  5000  7125
1318  4562.5  7062.5
1319  4625  7062.5
1320  4687.5  7062.5
1321  4750  7062.5
1322  4812.5  7062.5
1323  4875  7062.5
1324  4937.5  7062.5
1325  5000  7062.5
1326  4562.5  7000
1327  4625  7000
1328  4687.5  7000
1329  4750  7000
1330  4812.5  7000
1331  4875  7000
1332  4937.5  7000
1333  5000  7000
1334  5062.5  7437.5
1335  5125  7437.5
1336  5187.5  7437.5
1337  5250  7437.5
1338  5312.5  7437.5
1339  5375  7437.5
1340  5437.5  7437.5
1341  5500  7437.5
1342  5062.5  7375
1343  5125  7375
1344  5187.5  7375
1345  5250  7375
1346  5312.5  7375
1347  5375  7375
1348  5437.5  7375
1349  5500  7375
1350  5062.5  7312.5
1351  5125  7312.5
1352  5187.5  7312.5
1353  5250  7312.5
1354  5312.5  7312.5
1355  5375  7312.5
1356  5437.5  7312.5
1357  5500  7312.5
1358  5062.5  7250
1359  5125  7250
1360  5187.5  7250
1361  5250  7250
1362  5312.5  7250
1363  5375  7250
1364  5437.5  7250
1365  5500  7250
1366  5062.5  7187.5
1367  5125  7187.5
1368  5187.5  7187.5
1369  5250  7187.5
1370  5312.5  7187.5
1371  5375  7187.5
1372  5437.5  7187.5
1373  5500  7187.5
1374  5062.5  7125
1375  5125  7125
1376  5187.5  7125
1377  5250  7125
1378  5312.5  7125
1379  5375  7125
1380  5437.5  7125
1381  5500  7125
1382  5062.5  7062.5
1383  5125  7062.5
1384  5187.5  7062.5
1385  5250  7062.5
1386  5312.5  7062.5
1387  5375  7062.5
1388  5437.5  7062.5
1389  5500  7062.5
1390  5062.5  7000
1391  5125  7000
1392  5187.5  7000
1393  5250  7000
1394  5312.5  7000
1395  5375  7000
1396  5437.5  7000
1397  5500  7000
1398  5625  7375
1399  5750  7375
1400  5875  7375
1401  6000  7375
1402  5625  7250
1403  5750  7250
1404  5875  7250
1405  6000  7250
1406  5625  7125
1407  5750  7125
1408  5875  7125
1409  6000  7125
1410  5625  7000
1411  5750  7000
1412  5875  7000
1413  6000  7000
1414  6250  7250
1415  6500  7250
1416  6250  7000
1417  6500  7000
1418  7000  7000
1419  7500  7000
1420  8000  7000
1421  8500  7000
1422  9000  7000
1423  9500  7000
1424  10000  7000
1425  10500  7000
1426  11000  7000
1427  11500  7000
1428  12000  7000
1429  12500  7000
1430  13000  7000
1431  500  6500
1432  0  6500
1433  1000  6500
1434  1500  6500
1435  2000  6500
1436  2500  6500
1437  2750  6750
1438  2500  6750
1439  3000  6750
1440  2750  6500
1441  3000  6500
1442  3125  6875
1443  3000  6875
1444  3250  6875
1445  3375  6875
1446  3500  6875
1447  3125  6750
1448  3250  6750
1449  3375  6750
1450  3500  6750
1451  3125  6625
1452  3000  6625
1453  3250  6625
1454  3375  6625
1455  3500  6625
1456  3125  6500
1457  3250  6500
1458  3375  6500
1459  3500  6500
1460  3625  6875
1461  3750  6875
1462  3875  6875
1463  4000  6875
1464  3625  6750
1465  3750  6750
1466  3875  6750
1467  4000  6750
1468  3625  6625
1469  3750  6625
1470  3875  6625
1471  4000  6625
1472  3625  6500
1473  3750  6500
1474  3875  6500
1475  4000  6500
1476  4062.5  6937.5
1477  4000  6937.5
1478  4125  6937.5
1479  4187.5  6937.5
1480  4250  6937.5
1481  4312.5  6937.5
1482  4375  6937.5
1483  4437.5  6937.5
1484  4500  6937.5
1485  4062.5  6875
1486  4125  6875
1487  4187.5  6875
1488  4250  6875
1489  4312.5  6875
1490  4375  6875
1491  4437.5  6875
1492  4500  6875
1493  4062.5  6812.5
1494  4000  6812.5
1495  4125  6812.5
1496  4187.5  6812.5
1497  4250  6812.5
1498  4312.5  6812.5
1499  4375  6812.5
1500  4437.5  6812.5
1501  4500  6812.5
1502  4062.5  6750
1503  4125  6750
1504  4187.5  6750
1505  4250  6750
1506  4312.5  6750
1507  4375  6750
1508  4437.5  6750
1509  4500  6750
1510  4062.5  6687.5
1511  4000  6687.5
1512  4125  6687.5
1513  4187.5  6687.5
1514  4250  6687.5
1515  4312.5  6687.5
1516  4375  6687.5
1517  4437.5  6687.5
1518  4500  6687.5
1519  4062.5  6625
1520  4125  6625
1521  4187.5  6625
1522  4250  6625
1523  4312.5  6625
1524  4375  6625
1525  4437.5  6625
1526  4500  6625
1527  4062.5  6562.5
1528  4000  6562.5
1529  4125  6562.5
1530  4187.5  6562.5
1531  4250  6562.5
1532  4312.5  6562.5
1533  4375  6562.5
1534  4437.5  6562.5
1535  4500  6562.5
1536  4062.5  6500
1537  4125  6500
1538  4187.5  6500
1539  4250  6500
1540  4312.5  6500
1541  4375  6500
1542  4437.5  6500
1543  4500  6500
1544  4562.5  6937.5
1545  4625  6937.5
1546  4687.5  6937.5
1547  4750  6937.5
1548  4812.5  6937.5
1549  4875  6937.5
1550  4937.5  6937.5
1551  5000  6937.5
1552  4562.5  6875
1553  4625  6875
1554  4687.5  6875
1555  4750  6875
1556  4812.5  6875
1557  4875  6875
1558  4937.5  6875
1559  5000  6875
1560  4562.5  6812.5
1561  4625  6812.5
1562  4687.5  6812.5
1563  4750  6812.5
1564  4812.5  6812.5
1565  4875  6812.5
1566  4937.5  6812.5
1567  5000  6812.5
1568  4562.5  6750
1569  4625  6750
1570  4687.5  6750
1571  4750  6750
1572  4812.5  6750
1573  4875  6750
1574  4937.5  6750
1575  5000  6750
1576  4562.5  6687.5
1577  4625  6687.5
1578  4687.5  6687.5
1579  4750  6687.5
1580  4812.5  6687.5
1581  4875  6687.5
1582  4937.5  6687.5
1583  5000  6687.5
1584  4562.5  6625
1585  4625  6625
1586  4687.5  6625
1587  4750  6625
1588  4812.5  6625
1589  4875  6625
1590  4937.5  6625