BEGIN OPTIONS
  AUXILIARY IFACE
  SAVE_FLOWS
END OPTIONS

BEGIN DIMENSIONS
  MAXBOUND 68
END DIMENSIONS

BEGIN PERIOD 1
  1 862 -30000.  0
  1 905 -30000.  0
  1 1960 10000.  1
  1 1933 10000.  3
  1 1932 10000.  3
  1 1931  5000.  1
  1 1931  5000.  3
  1 1904  5000.  1
  1 1904  5000.  3
  1 1877 10000.  3
  1 1876 10000.  3
  1 1875  5000.  1
  1 1875  5000.  3
  1 1848 10000.  3
  1 1847 10000.  3
  1 1846  5000.  1
  1 1846  5000.  3
  1 1819  5000.  1
  1 1819  5000.  3
  1 1793 10000.  1
  1 1767 10000.  1
  1 1741  5000.  1   
  1 1741  5000.  4
  1 1716  5000.  1
  1 1716  5000.  4
  1 1691 10000.  1
  1 1647  5000.  1
  1 1647  5000.  4
  1 1550  5000.  1
  1 1550  5000.  4
  1 1333  5000.  1
  1 1333  5000.  4
  1 1022  2500.  1
  1 1022  2500.  4
  1 1021  5000.  1
  1 709   2500.  1
  1 709   2500.  4
  1 714    625.  1
  1 714    625.  4
  1 711    625.  1
  1 711    625.  4
  1 410   1250.  1
  1 406    625.  1
  1 406    625.  4
  1 403    625.  1
  1 403    625.  4
  1 420   1250.  1
  1 412   1250.  1
  1 206   1250.  1
  1 206   1250.  4
  1 203   1250.  1
  1 203   1250.  4
  1 200   2500.  1
  1 196   1250.  1
  1 196   1250.  4
  1 99    2500.  1
  1 95    1250.  1
  1 95    1250.  4
  1 104   1250.  1
  1 104   1250.  4
  1 101   1250.  1
  1 101   1250.  4
  1 44    2500.  1
  1 44    2500.  4
  1 45    2500.  1
  1 45    2500.  4
  1 46    5000.  4
  1 11   10000.  1
END PERIOD
