BEGIN OPTIONS
  AUXILIARY IFACE
  SAVE_FLOWS
END OPTIONS

BEGIN DIMENSIONS
  MAXBOUND 1
END DIMENSIONS

BEGIN PERIOD 1
  3 11 10 -150000.  0
END PERIOD
