# Example 1: MODPATH basic data file
# MODFLOW-6 version
0                 
CONSTANT 0.1      
CONSTANT 0.1      
CONSTANT 0.1      

