BEGIN OPTIONS
  SAVE_FLOWS
END OPTIONS

BEGIN GRIDDATA
  ICELLTYPE LAYERED
    CONSTANT 1
    CONSTANT 0
    CONSTANT 0
  K LAYERED
    CONSTANT 50.
    CONSTANT 0.01
    CONSTANT 200.
  K33 LAYERED
    CONSTANT 10.
    CONSTANT 0.01
    CONSTANT 20.
END GRIDDATA
