BEGIN OPTIONS
  AUXILIARY IFACE
  SAVE_FLOWS
END OPTIONS

BEGIN DIMENSIONS
  MAXBOUND 21
END DIMENSIONS

BEGIN PERIOD 1
         1         1        20 3.200E+02 1.000E+05 3.170E+02         6
         1         2        20 3.200E+02 1.000E+05 3.170E+02         6
         1         3        20 3.200E+02 1.000E+05 3.170E+02         6
         1         4        20 3.200E+02 1.000E+05 3.170E+02         6
         1         5        20 3.200E+02 1.000E+05 3.170E+02         6
         1         6        20 3.200E+02 1.000E+05 3.170E+02         6
         1         7        20 3.200E+02 1.000E+05 3.170E+02         6
         1         8        20 3.200E+02 1.000E+05 3.170E+02         6
         1         9        20 3.200E+02 1.000E+05 3.170E+02         6
         1        10        20 3.200E+02 1.000E+05 3.170E+02         6
         1        11        20 3.200E+02 1.000E+05 3.170E+02         6
         1        12        20 3.200E+02 1.000E+05 3.170E+02         6
         1        13        20 3.200E+02 1.000E+05 3.170E+02         6
         1        14        20 3.200E+02 1.000E+05 3.170E+02         6
         1        15        20 3.200E+02 1.000E+05 3.170E+02         6
         1        16        20 3.200E+02 1.000E+05 3.170E+02         6
         1        17        20 3.200E+02 1.000E+05 3.170E+02         6
         1        18        20 3.200E+02 1.000E+05 3.170E+02         6
         1        19        20 3.200E+02 1.000E+05 3.170E+02         6
         1        20        20 3.200E+02 1.000E+05 3.170E+02         6
         1        21        20 3.200E+02 1.000E+05 3.170E+02         6
END PERIOD
