BEGIN OPTIONS
LENGTH_UNITS FEET
XORIGIN 0
YORIGIN 0
ANGROT 0
END OPTIONS

BEGIN DIMENSIONS
NLAY 3
NCPL 651
NVERT 723
END DIMENSIONS

BEGIN GRIDDATA
TOP
CONSTANT 400
BOTM LAYERED
CONSTANT 220
CONSTANT 200
CONSTANT 0
END GRIDDATA

BEGIN VERTICES
1  0  10500
2  500  10500
3  500  10000
4  0  10000
5  1000  10500
6  1000  10000
7  1500  10500
8  1500  10000
9  2000  10500
10  2000  10000
11  2500  10500
12  2500  10000
13  3000  10500
14  3000  10000
15  3500  10500
16  3500  10000
17  4000  10500
18  4000  10000
19  4500  10500
20  4500  10000
21  5000  10500
22  5000  10000
23  5500  10500
24  5500  10000
25  6000  10500
26  6000  10000
27  6500  10500
28  6500  10000
29  7000  10500
30  7000  10000
31  7500  10500
32  7500  10000
33  8000  10500
34  8000  10000
35  8500  10500
36  8500  10000
37  9000  10500
38  9000  10000
39  9500  10500
40  9500  10000
41  10000  10500
42  10000  10000
43  500  9500
44  0  9500
45  1000  9500
46  1500  9500
47  2000  9500
48  2500  9500
49  3000  9500
50  3500  9500
51  4000  9500
52  4500  9500
53  5000  9500
54  5500  9500
55  6000  9500
56  6500  9500
57  7000  9500
58  7500  9500
59  8000  9500
60  8500  9500
61  9000  9500
62  9500  9500
63  10000  9500
64  500  9000
65  0  9000
66  1000  9000
67  1500  9000
68  2000  9000
69  2500  9000
70  3000  9000
71  3500  9000
72  4000  9000
73  4500  9000
74  5000  9000
75  5500  9000
76  6000  9000
77  6500  9000
78  7000  9000
79  7500  9000
80  8000  9000
81  8500  9000
82  9000  9000
83  9500  9000
84  10000  9000
85  500  8500
86  0  8500
87  1000  8500
88  1500  8500
89  2000  8500
90  2500  8500
91  3000  8500
92  3500  8500
93  4000  8500
94  4500  8500
95  5000  8500
96  5500  8500
97  6000  8500
98  6500  8500
99  7000  8500
100  7500  8500
101  8000  8500
102  8500  8500
103  9000  8500
104  9500  8500
105  10000  8500
106  500  8000
107  0  8000
108  1000  8000
109  1500  8000
110  2000  8000
111  2500  8000
112  3000  8000
113  3500  8000
114  4000  8000
115  4500  8000
116  5000  8000
117  5500  8000
118  6000  8000
119  6500  8000
120  7000  8000
121  7500  8000
122  8000  8000
123  8500  8000
124  9000  8000
125  9500  8000
126  10000  8000
127  500  7500
128  0  7500
129  1000  7500
130  1500  7500
131  2000  7500
132  2500  7500
133  3000  7500
134  3500  7500
135  4000  7500
136  4500  7500
137  5000  7500
138  5500  7500
139  6000  7500
140  6500  7500
141  7000  7500
142  7500  7500
143  8000  7500
144  8500  7500
145  9000  7500
146  9500  7500
147  10000  7500
148  500  7000
149  0  7000
150  1000  7000
151  1500  7000
152  2000  7000
153  2500  7000
154  3000  7000
155  3500  7000
156  4000  7000
157  4500  7000
158  5000  7000
159  5500  7000
160  6000  7000
161  6500  7000
162  7000  7000
163  7500  7000
164  8000  7000
165  8500  7000
166  9000  7000
167  9500  7000
168  10000  7000
169  500  6500
170  0  6500
171  1000  6500
172  1500  6500
173  2000  6500
174  2500  6500
175  3000  6500
176  3500  6500
177  4000  6500
178  4500  6500
179  5000  6500
180  5500  6500
181  6000  6500
182  6500  6500
183  7000  6500
184  7500  6500
185  8000  6500
186  8500  6500
187  9000  6500
188  9500  6500
189  10000  6500
190  500  6000
191  0  6000
192  1000  6000
193  1500  6000
194  2000  6000
195  2500  6000
196  3000  6000
197  3500  6000
198  3750  6500
199  3750  6250
200  3500  6250
201  4000  6250
202  3750  6000
203  4000  6000
204  4250  6500
205  4250  6250
206  4500  6250
207  4250  6000
208  4500  6000
209  4750  6500
210  4750  6250
211  5000  6250
212  4750  6000
213  5000  6000
214  5250  6500
215  5250  6250
216  5500  6250
217  5250  6000
218  5500  6000
219  5750  6500
220  5750  6250
221  6000  6250
222  5750  6000
223  6000  6000
224  6500  6000
225  7000  6000
226  7500  6000
227  8000  6000
228  8500  6000
229  9000  6000
230  9500  6000
231  10000  6000
232  500  5500
233  0  5500
234  1000  5500
235  1500  5500
236  2000  5500
237  2500  5500
238  3000  5500
239  3500  5500
240  3750  5750
241  3500  5750
242  4000  5750
243  3750  5500
244  4000  5500
245  4125  6000
246  4125  5875
247  4000  5875
248  4250  5875
249  4375  6000
250  4375  5875
251  4500  5875
252  4125  5750
253  4250  5750
254  4375  5750
255  4500  5750
256  4125  5625
257  4000  5625
258  4250  5625
259  4375  5625
260  4500  5625
261  4125  5500
262  4250  5500
263  4375  5500
264  4500  5500
265  4625  6000
266  4625  5875
267  4750  5875
268  4875  6000
269  4875  5875
270  5000  5875
271  4625  5750
272  4750  5750
273  4875  5750
274  5000  5750
275  4625  5625
276  4750  5625
277  4875  5625
278  5000  5625
279  4625  5500
280  4750  5500
281  4875  5500
282  5000  5500
283  5125  6000
284  5125  5875
285  5250  5875
286  5375  6000
287  5375  5875
288  5500  5875
289  5125  5750
290  5250  5750
291  5375  5750
292  5500  5750
293  5125  5625
294  5250  5625
295  5375  5625
296  5500  5625
297  5125  5500
298  5250  5500
299  5375  5500
300  5500  5500
301  5750  5750
302  6000  5750
303  5750  5500
304  6000  5500
305  6500  5500
306  7000  5500
307  7500  5500
308  8000  5500
309  8500  5500
310  9000  5500
311  9500  5500
312  10000  5500
313  500  5000
314  0  5000
315  1000  5000
316  1500  5000
317  2000  5000
318  2500  5000
319  3000  5000
320  3500  5000
321  3750  5250
322  3500  5250
323  4000  5250
324  3750  5000
325  4000  5000
326  4125  5375
327  4000  5375
328  4250  5375
329  4375  5375
330  4500  5375
331  4125  5250
332  4250  5250
333  4375  5250
334  4500  5250
335  4125  5125
336  4000  5125
337  4250  5125
338  4375  5125
339  4500  5125
340  4125  5000
341  4250  5000
342  4375  5000
343  4500  5000
344  4562.5  5500
345  4562.5  5437.5
346  4500  5437.5
347  4625  5437.5
348  4687.5  5500
349  4687.5  5437.5
350  4750  5437.5
351  4812.5  5500
352  4812.5  5437.5
353  4875  5437.5
354  4937.5  5500
355  4937.5  5437.5
356  5000  5437.5
357  4562.5  5375
358  4625  5375
359  4687.5  5375
360  4750  5375
361  4812.5  5375
362  4875  5375
363  4937.5  5375
364  5000  5375
365  4562.5  5312.5
366  4500  5312.5
367  4625  5312.5
368  4687.5  5312.5
369  4750  5312.5
370  4812.5  5312.5
371  4875  5312.5
372  4937.5  5312.5
373  5000  5312.5
374  4562.5  5250
375  4625  5250
376  4687.5  5250
377  4750  5250
378  4812.5  5250
379  4875  5250
380  4937.5  5250
381  5000  5250
382  4562.5  5187.5
383  4500  5187.5
384  4625  5187.5
385  4687.5  5187.5
386  4750  5187.5
387  4812.5  5187.5
388  4875  5187.5
389  4937.5  5187.5
390  5000  5187.5
391  4562.5  5125
392  4625  5125
393  4687.5  5125
394  4750  5125
395  4812.5  5125
396  4875  5125
397  4937.5  5125
398  5000  5125
399  4562.5  5062.5
400  4500  5062.5
401  4625  5062.5
402  4687.5  5062.5
403  4750  5062.5
404  4812.5  5062.5
405  4875  5062.5
406  4937.5  5062.5
407  5000  5062.5
408  4562.5  5000
409  4625  5000
410  4687.5  5000
411  4750  5000
412  4812.5  5000
413  4875  5000
414  4937.5  5000
415  5000  5000
416  5125  5375
417  5250  5375
418  5375  5375
419  5500  5375
420  5125  5250
421  5250  5250
422  5375  5250
423  5500  5250
424  5125  5125
425  5250  5125
426  5375  5125
427  5500  5125
428  5125  5000
429  5250  5000
430  5375  5000
431  5500  5000
432  5750  5250
433  6000  5250
434  5750  5000
435  6000  5000
436  6500  5000
437  7000  5000
438  7500  5000
439  8000  5000
440  8500  5000
441  9000  5000
442  9500  5000
443  10000  5000
444  500  4500
445  0  4500
446  1000  4500
447  1500  4500
448  2000  4500
449  2500  4500
450  3000  4500
451  3500  4500
452  3750  4750
453  3500  4750
454  4000  4750
455  3750  4500
456  4000  4500
457  4125  4875
458  4000  4875
459  4250  4875
460  4375  4875
461  4500  4875
462  4125  4750
463  4250  4750
464  4375  4750
465  4500  4750
466  4125  4625
467  4000  4625
468  4250  4625
469  4375  4625
470  4500  4625
471  4125  4500
472  4250  4500
473  4375  4500
474  4500  4500
475  4625  4875
476  4750  4875
477  4875  4875
478  5000  4875
479  4625  4750
480  4750  4750
481  4875  4750
482  5000  4750
483  4625  4625
484  4750  4625
485  4875  4625
486  5000  4625
487  4625  4500
488  4750  4500
489  4875  4500
490  5000  4500
491  5125  4875
492  5250  4875
493  5375  4875
494  5500  4875
495  5125  4750
496  5250  4750
497  5375  4750
498  5500  4750
499  5125  4625
500  5250  4625
501  5375  4625
502  5500  4625
503  5125  4500
504  5250  4500
505  5375  4500
506  5500  4500
507  5750  4750
508  6000  4750
509  5750  4500
510  6000  4500
511  6500  4500
512  7000  4500
513  7500  4500
514  8000  4500
515  8500  4500
516  9000  4500
517  9500  4500
518  10000  4500
519  500  4000
520  0  4000
521  1000  4000
522  1500  4000
523  2000  4000
524  2500  4000
525  3000  4000
526  3500  4000
527  3750  4250
528  3500  4250
529  4000  4250
530  3750  4000
531  4000  4000
532  4250  4250
533  4500  4250
534  4250  4000
535  4500  4000
536  4750  4250
537  5000  4250
538  4750  4000
539  5000  4000
540  5250  4250
541  5500  4250
542  5250  4000
543  5500  4000
544  5750  4250
545  6000  4250
546  5750  4000
547  6000  4000
548  6500  4000
549  7000  4000
550  7500  4000
551  8000  4000
552  8500  4000
553  9000  4000
554  9500  4000
555  10000  4000
556  500  3500
557  0  3500
558  1000  3500
559  1500  3500
560  2000  3500
561  2500  3500
562  3000  3500
563  3500  3500
564  4000  3500
565  4500  3500
566  5000  3500
567  5500  3500
568  6000  3500
569  6500  3500
570  7000  3500
571  7500  3500
572  8000  3500
573  8500  3500
574  9000  3500
575  9500  3500
576  10000  3500
577  500  3000
578  0  3000
579  1000  3000
580  1500  3000
581  2000  3000
582  2500  3000
583  3000  3000
584  3500  3000
585  4000  3000
586  4500  3000
587  5000  3000
588  5500  3000
589  6000  3000
590  6500  3000
591  7000  3000
592  7500  3000
593  8000  3000
594  8500  3000
595  9000  3000
596  9500  3000
597  10000  3000
598  500  2500
599  0  2500
600  1000  2500
601  1500  2500
602  2000  2500
603  2500  2500
604  3000  2500
605  3500  2500
606  4000  2500
607  4500  2500
608  5000  2500
609  5500  2500
610  6000  2500
611  6500  2500
612  7000  2500
613  7500  2500
614  8000  2500
615  8500  2500
616  9000  2500
617  9500  2500
618  10000  2500
619  500  2000
620  0  2000
621  1000  2000
622  1500  2000
623  2000  2000
624  2500  2000
625  3000  2000
626  3500  2000
627  4000  2000
628  4500  2000
629  5000  2000
630  5500  2000
631  6000  2000
632  6500  2000
633  7000  2000
634  7500  2000
635  8000  2000
636  8500  2000
637  9000  2000
638  9500  2000
639  10000  2000
640  500  1500
641  0  1500
642  1000  1500
643  1500  1500
644  2000  1500
645  2500  1500
646  3000  1500
647  3500  1500
648  4000  1500
649  4500  1500
650  5000  1500
651  5500  1500
652  6000  1500
653  6500  1500
654  7000  1500
655  7500  1500
656  8000  1500
657  8500  1500
658  9000  1500
659  9500  1500
660  10000  1500
661  500  1000
662  0  1000
663  1000  1000
664  1500  1000
665  2000  1000
666  2500  1000
667  3000  1000
668  3500  1000
669  4000  1000
670  4500  1000
671  5000  1000
672  5500  1000
673  6000  1000
674  6500  1000
675  7000  1000
676  7500  1000
677  8000  1000
678  8500  1000
679  9000  1000
680  9500  1000
681  10000  1000
682  500  500
683  0  500
684  1000  500
685  1500  500
686  2000  500
687  2500  500
688  3000  500
689  3500  500
690  4000  500
691  4500  500
692  5000  500
693  5500  500
694  6000  500
695  6500  500
696  7000  500
697  7500  500
698  8000  500
699  8500  500
700  9000  500
701  9500  500
702  10000  500
703  500  0
704  0  0
705  1000  0
706  1500  0
707  2000  0
708  2500  0
709  3000  0
710  3500  0
711  4000  0
712  4500  0
713  5000  0
714  5500  0
715  6000  0
716  6500  0
717  7000  0
718  7500  0
719  8000  0
720  8500  0
721  9000  0
722  9500  0
723  10000  0
END VERTICES

BEGIN CELL2D
1  250  10250  4  1 2 3 4 
2  750  10250  4  2 5 6 3 
3  1250  10250  4  5 7 8 6 
4  1750  10250  4  7 9 10 8 
5  2250  10250  4  9 11 12 10 
6  2750  10250  4  11 13 14 12 
7  3250  10250  4  13 15 16 14 
8  3750  10250  4  15 17 18 16 
9  4250  10250  4  17 19 20 18 
10  4750  10250  4  19 21 22 20 
11  5250  10250  4  21 23 24 22 
12  5750  10250  4  23 25 26 24 
13  6250  10250  4  25 27 28 26 
14  6750  10250  4  27 29 30 28 
15  7250  10250  4  29 31 32 30 
16  7750  10250  4  31 33 34 32 
17  8250  10250  4  33 35 36 34 
18  8750  10250  4  35 37 38 36 
19  9250  10250  4  37 39 40 38 
20  9750  10250  4  39 41 42 40 
21  250  9750  4  4 3 43 44 
22  750  9750  4  3 6 45 43 
23  1250  9750  4  6 8 46 45 
24  1750  9750  4  8 10 47 46 
25  2250  9750  4  10 12 48 47 
26  2750  9750  4  12 14 49 48 
27  3250  9750  4  14 16 50 49 
28  3750  9750  4  16 18 51 50 
29  4250  9750  4  18 20 52 51 
30  4750  9750  4  20 22 53 52 
31  5250  9750  4  22 24 54 53 
32  5750  9750  4  24 26 55 54 
33  6250  9750  4  26 28 56 55 
34  6750  9750  4  28 30 57 56 
35  7250  9750  4  30 32 58 57 
36  7750  9750  4  32 34 59 58 
37  8250  9750  4  34 36 60 59 
38  8750  9750  4  36 38 61 60 
39  9250  9750  4  38 40 62 61 
40  9750  9750  4  40 42 63 62 
41  250  9250  4  44 43 64 65 
42  750  9250  4  43 45 66 64 
43  1250  9250  4  45 46 67 66 
44  1750  9250  4  46 47 68 67 
45  2250  9250  4  47 48 69 68 
46  2750  9250  4  48 49 70 69 
47  3250  9250  4  49 50 71 70 
48  3750  9250  4  50 51 72 71 
49  4250  9250  4  51 52 73 72 
50  4750  9250  4  52 53 74 73 
51  5250  9250  4  53 54 75 74 
52  5750  9250  4  54 55 76 75 
53  6250  9250  4  55 56 77 76 
54  6750  9250  4  56 57 78 77 
55  7250  9250  4  57 58 79 78 
56  7750  9250  4  58 59 80 79 
57  8250  9250  4  59 60 81 80 
58  8750  9250  4  60 61 82 81 
59  9250  9250  4  61 62 83 82 
60  9750  9250  4  62 63 84 83 
61  250  8750  4  65 64 85 86 
62  750  8750  4  64 66 87 85 
63  1250  8750  4  66 67 88 87 
64  1750  8750  4  67 68 89 88 
65  2250  8750  4  68 69 90 89 
66  2750  8750  4  69 70 91 90 
67  3250  8750  4  70 71 92 91 
68  3750  8750  4  71 72 93 92 
69  4250  8750  4  72 73 94 93 
70  4750  8750  4  73 74 95 94 
71  5250  8750  4  74 75 96 95 
72  5750  8750  4  75 76 97 96 
73  6250  8750  4  76 77 98 97 
74  6750  8750  4  77 78 99 98 
75  7250  8750  4  78 79 100 99 
76  7750  8750  4  79 80 101 100 
77  8250  8750  4  80 81 102 101 
78  8750  8750  4  81 82 103 102 
79  9250  8750  4  82 83 104 103 
80  9750  8750  4  83 84 105 104 
81  250  8250  4  86 85 106 107 
82  750  8250  4  85 87 108 106 
83  1250  8250  4  87 88 109 108 
84  1750  8250  4  88 89 110 109 
85  2250  8250  4  89 90 111 110 
86  2750  8250  4  90 91 112 111 
87  3250  8250  4  91 92 113 112 
88  3750  8250  4  92 93 114 113 
89  4250  8250  4  93 94 115 114 
90  4750  8250  4  94 95 116 115 
91  5250  8250  4  95 96 117 116 
92  5750  8250  4  96 97 118 117 
93  6250  8250  4  97 98 119 118 
94  6750  8250  4  98 99 120 119 
95  7250  8250  4  99 100 121 120 
96  7750  8250  4  100 101 122 121 
97  8250  8250  4  101 102 123 122 
98  8750  8250  4  102 103 124 123 
99  9250  8250  4  103 104 125 124 
100  9750  8250  4  104 105 126 125 
101  250  7750  4  107 106 127 128 
102  750  7750  4  106 108 129 127 
103  1250  7750  4  108 109 130 129 
104  1750  7750  4  109 110 131 130 
105  2250  7750  4  110 111 132 131 
106  2750  7750  4  111 112 133 132 
107  3250  7750  4  112 113 134 133 
108  3750  7750  4  113 114 135 134 
109  4250  7750  4  114 115 136 135 
110  4750  7750  4  115 116 137 136 
111  5250  7750  4  116 117 138 137 
112  5750  7750  4  117 118 139 138 
113  6250  7750  4  118 119 140 139 
114  6750  7750  4  119 120 141 140 
115  7250  7750  4  120 121 142 141 
116  7750  7750  4  121 122 143 142 
117  8250  7750  4  122 123 144 143 
118  8750  7750  4  123 124 145 144 
119  9250  7750  4  124 125 146 145 
120  9750  7750  4  125 126 147 146 
121  250  7250  4  128 127 148 149 
122  750  7250  4  127 129 150 148 
123  1250  7250  4  129 130 151 150 
124  1750  7250  4  130 131 152 151 
125  2250  7250  4  131 132 153 152 
126  2750  7250  4  132 133 154 153 
127  3250  7250  4  133 134 155 154 
128  3750  7250  4  134 135 156 155 
129  4250  7250  4  135 136 157 156 
130  4750  7250  4  136 137 158 157 
131  5250  7250  4  137 138 159 158 
132  5750  7250  4  138 139 160 159 
133  6250  7250  4  139 140 161 160 
134  6750  7250  4  140 141 162 161 
135  7250  7250  4  141 142 163 162 
136  7750  7250  4  142 143 164 163 
137  8250  7250  4  143 144 165 164 
138  8750  7250  4  144 145 166 165 
139  9250  7250  4  145 146 167 166 
140  9750  7250  4  146 147 168 167 
141  250  6750  4  149 148 169 170 
142  750  6750  4  148 150 171 169 
143  1250  6750  4  150 151 172 171 
144  1750  6750  4  151 152 173 172 
145  2250  6750  4  152 153 174 173 
146  2750  6750  4  153 154 175 174 
147  3250  6750  4  154 155 176 175 
148  3750  6750  5  155 156 177 198 176 
149  4250  6750  5  156 157 178 204 177 
150  4750  6750  5  157 158 179 209 178 
151  5250  6750  5  158 159 180 214 179 
152  5750  6750  5  159 160 181 219 180 
153  6250  6750  4  160 161 182 181 
154  6750  6750  4  161 162 183 182 
155  7250  6750  4  162 163 184 183 
156  7750  6750  4  163 164 185 184 
157  8250  6750  4  164 165 186 185 
158  8750  6750  4  165 166 187 186 
159  9250  6750  4  166 167 188 187 
160  9750  6750  4  167 168 189 188 
161  250  6250  4  170 169 190 191 
162  750  6250  4  169 171 192 190 
163  1250  6250  4  171 172 193 192 
164  1750  6250  4  172 173 194 193 
165  2250  6250  4  173 174 195 194 
166  2750  6250  4  174 175 196 195 
167  3250  6250  5  175 176 200 197 196 
168  3625  6375  4  176 198 199 200 
169  3875  6375  4  198 177 201 199 
170  3625  6125  4  200 199 202 197 
171  3875  6125  4  199 201 203 202 
172  4125  6375  4  177 204 205 201 
173  4375  6375  4  204 178 206 205 
174  4125  6125  5  201 205 207 245 203 
175  4375  6125  5  205 206 208 249 207 
176  4625  6375  4  178 209 210 206 
177  4875  6375  4  209 179 211 210 
178  4625  6125  5  206 210 212 265 208 
179  4875  6125  5  210 211 213 268 212 
180  5125  6375  4  179 214 215 211 
181  5375  6375  4  214 180 216 215 
182  5125  6125  5  211 215 217 283 213 
183  5375  6125  5  215 216 218 286 217 
184  5625  6375  4  180 219 220 216 
185  5875  6375  4  219 181 221 220 
186  5625  6125  4  216 220 222 218 
187  5875  6125  4  220 221 223 222 
188  6250  6250  5  181 182 224 223 221 
189  6750  6250  4  182 183 225 224 
190  7250  6250  4  183 184 226 225 
191  7750  6250  4  184 185 227 226 
192  8250  6250  4  185 186 228 227 
193  8750  6250  4  186 187 229 228 
194  9250  6250  4  187 188 230 229 
195  9750  6250  4  188 189 231 230 
196  250  5750  4  191 190 232 233 
197  750  5750  4  190 192 234 232 
198  1250  5750  4  192 193 235 234 
199  1750  5750  4  193 194 236 235 
200  2250  5750  4  194 195 237 236 
201  2750  5750  4  195 196 238 237 
202  3250  5750  5  196 197 241 239 238 
203  3625  5875  4  197 202 240 241 
204  3875  5875  5  202 203 247 242 240 
205  3625  5625  4  241 240 243 239 
206  3875  5625  5  240 242 257 244 243 
207  4062.5  5937.5  4  203 245 246 247 
208  4187.5  5937.5  4  245 207 248 246 
209  4312.5  5937.5  4  207 249 250 248 
210  4437.5  5937.5  4  249 208 251 250 
211  4062.5  5812.5  4  247 246 252 242 
212  4187.5  5812.5  4  246 248 253 252 
213  4312.5  5812.5  4  248 250 254 253 
214  4437.5  5812.5  4  250 251 255 254 
215  4062.5  5687.5  4  242 252 256 257 
216  4187.5  5687.5  4  252 253 258 256 
217  4312.5  5687.5  4  253 254 259 258 
218  4437.5  5687.5  4  254 255 260 259 
219  4062.5  5562.5  4  257 256 261 244 
220  4187.5  5562.5  4  256 258 262 261 
221  4312.5  5562.5  4  258 259 263 262 
222  4437.5  5562.5  4  259 260 264 263 
223  4562.5  5937.5  4  208 265 266 251 
224  4687.5  5937.5  4  265 212 267 266 
225  4812.5  5937.5  4  212 268 269 267 
226  4937.5  5937.5  4  268 213 270 269 
227  4562.5  5812.5  4  251 266 271 255 
228  4687.5  5812.5  4  266 267 272 271 
229  4812.5  5812.5  4  267 269 273 272 
230  4937.5  5812.5  4  269 270 274 273 
231  4562.5  5687.5  4  255 271 275 260 
232  4687.5  5687.5  4  271 272 276 275 
233  4812.5  5687.5  4  272 273 277 276 
234  4937.5  5687.5  4  273 274 278 277 
235  4562.5  5562.5  5  260 275 279 344 264 
236  4687.5  5562.5  5  275 276 280 348 279 
237  4812.5  5562.5  5  276 277 281 351 280 
238  4937.5  5562.5  5  277 278 282 354 281 
239  5062.5  5937.5  4  213 283 284 270 
240  5187.5  5937.5  4  283 217 285 284 
241  5312.5  5937.5  4  217 286 287 285 
242  5437.5  5937.5  4  286 218 288 287 
243  5062.5  5812.5  4  270 284 289 274 
244  5187.5  5812.5  4  284 285 290 289 
245  5312.5  5812.5  4  285 287 291 290 
246  5437.5  5812.5  4  287 288 292 291 
247  5062.5  5687.5  4  274 289 293 278 
248  5187.5  5687.5  4  289 290 294 293 
249  5312.5  5687.5  4  290 291 295 294 
250  5437.5  5687.5  4  291 292 296 295 
251  5062.5  5562.5  4  278 293 297 282 
252  5187.5  5562.5  4  293 294 298 297 
253  5312.5  5562.5  4  294 295 299 298 
254  5437.5  5562.5  4  295 296 300 299 
255  5625  5875  5  218 222 301 292 288 
256  5875  5875  4  222 223 302 301 
257  5625  5625  5  292 301 303 300 296 
258  5875  5625  4  301 302 304 303 
259  6250  5750  5  223 224 305 304 302 
260  6750  5750  4  224 225 306 305 
261  7250  5750  4  225 226 307 306 
262  7750  5750  4  226 227 308 307 
263  8250  5750  4  227 228 309 308 
264  8750  5750  4  228 229 310 309 
265  9250  5750  4  229 230 311 310 
266  9750  5750  4  230 231 312 311 
267  250  5250  4  233 232 313 314 
268  750  5250  4  232 234 315 313 
269  1250  5250  4  234 235 316 315 
270  1750  5250  4  235 236 317 316 
271  2250  5250  4  236 237 318 317 
272  2750  5250  4  237 238 319 318 
273  3250  5250  5  238 239 322 320 319 
274  3625  5375  4  239 243 321 322 
275  3875  5375  5  243 244 327 323 321 
276  3625  5125  4  322 321 324 320 
277  3875  5125  5  321 323 336 325 324 
278  4062.5  5437.5  4  244 261 326 327 
279  4187.5  5437.5  4  261 262 328 326 
280  4312.5  5437.5  4  262 263 329 328 
281  4437.5  5437.5  5  263 264 346 330 329 
282  4062.5  5312.5  4  327 326 331 323 
283  4187.5  5312.5  4  326 328 332 331 
284  4312.5  5312.5  4  328 329 333 332 
285  4437.5  5312.5  5  329 330 366 334 333 
286  4062.5  5187.5  4  323 331 335 336 
287  4187.5  5187.5  4  331 332 337 335 
288  4312.5  5187.5  4  332 333 338 337 
289  4437.5  5187.5  5  333 334 383 339 338 
290  4062.5  5062.5  4  336 335 340 325 
291  4187.5  5062.5  4  335 337 341 340 
292  4312.5  5062.5  4  337 338 342 341 
293  4437.5  5062.5  5  338 339 400 343 342 
294  4531.25  5468.75  4  264 344 345 346 
295  4593.75  5468.75  4  344 279 347 345 
296  4656.25  5468.75  4  279 348 349 347 
297  4718.75  5468.75  4  348 280 350 349 
298  4781.25  5468.75  4  280 351 352 350 
299  4843.75  5468.75  4  351 281 353 352 
300  4906.25  5468.75  4  281 354 355 353 
301  4968.75  5468.75  4  354 282 356 355 
302  4531.25  5406.25  4  346 345 357 330 
303  4593.75  5406.25  4  345 347 358 357 
304  4656.25  5406.25  4  347 349 359 358 
305  4718.75  5406.25  4  349 350 360 359 
306  4781.25  5406.25  4  350 352 361 360 
307  4843.75  5406.25  4  352 353 362 361 
308  4906.25  5406.25  4  353 355 363 362 
309  4968.75  5406.25  4  355 356 364 363 
310  4531.25  5343.75  4  330 357 365 366 
311  4593.75  5343.75  4  357 358 367 365 
312  4656.25  5343.75  4  358 359 368 367 
313  4718.75  5343.75  4  359 360 369 368 
314  4781.25  5343.75  4  360 361 370 369 
315  4843.75  5343.75  4  361 362 371 370 
316  4906.25  5343.75  4  362 363 372 371 
317  4968.75  5343.75  4  363 364 373 372 
318  4531.25  5281.25  4  366 365 374 334 
319  4593.75  5281.25  4  365 367 375 374 
320  4656.25  5281.25  4  367 368 376 375 
321  4718.75  5281.25  4  368 369 377 376 
322  4781.25  5281.25  4  369 370 378 377 
323  4843.75  5281.25  4  370 371 379 378 
324  4906.25  5281.25  4  371 372 380 379 
325  4968.75  5281.25  4  372 373 381 380 
326  4531.25  5218.75  4  334 374 382 383 
327  4593.75  5218.75  4  374 375 384 382 
328  4656.25  5218.75  4  375 376 385 384 
329  4718.75  5218.75  4  376 377 386 385 
330  4781.25  5218.75  4  377 378 387 386 
331  4843.75  5218.75  4  378 379 388 387 
332  4906.25  5218.75  4  379 380 389 388 
333  4968.75  5218.75  4  380 381 390 389 
334  4531.25  5156.25  4  383 382 391 339 
335  4593.75  5156.25  4  382 384 392 391 
336  4656.25  5156.25  4  384 385 393 392 
337  4718.75  5156.25  4  385 386 394 393 
338  4781.25  5156.25  4  386 387 395 394 
339  4843.75  5156.25  4  387 388 396 395 
340  4906.25  5156.25  4  388 389 397 396 
341  4968.75  5156.25  4  389 390 398 397 
342  4531.25  5093.75  4  339 391 399 400 
343  4593.75  5093.75  4  391 392 401 399 
344  4656.25  5093.75  4  392 393 402 401 
345  4718.75  5093.75  4  393 394 403 402 
346  4781.25  5093.75  4  394 395 404 403 
347  4843.75  5093.75  4  395 396 405 404 
348  4906.25  5093.75  4  396 397 406 405 
349  4968.75  5093.75  4  397 398 407 406 
350  4531.25  5031.25  4  400 399 408 343 
351  4593.75  5031.25  4  399 401 409 408 
352  4656.25  5031.25  4  401 402 410 409 
353  4718.75  5031.25  4  402 403 411 410 
354  4781.25  5031.25  4  403 404 412 411 
355  4843.75  5031.25  4  404 405 413 412 
356  4906.25  5031.25  4  405 406 414 413 
357  4968.75  5031.25  4  406 407 415 414 
358  5062.5  5437.5  5  282 297 416 364 356 
359  5187.5  5437.5  4  297 298 417 416 
360  5312.5  5437.5  4  298 299 418 417 
361  5437.5  5437.5  4  299 300 419 418 
362  5062.5  5312.5  5  364 416 420 381 373 
363  5187.5  5312.5  4  416 417 421 420 
364  5312.5  5312.5  4  417 418 422 421 
365  5437.5  5312.5  4  418 419 423 422 
366  5062.5  5187.5  5  381 420 424 398 390 
367  5187.5  5187.5  4  420 421 425 424 
368  5312.5  5187.5  4  421 422 426 425 
369  5437.5  5187.5  4  422 423 427 426 
370  5062.5  5062.5  5  398 424 428 415 407 
371  5187.5  5062.5  4  424 425 429 428 
372  5312.5  5062.5  4  425 426 430 429 
373  5437.5  5062.5  4  426 427 431 430 
374  5625  5375  5  300 303 432 423 419 
375  5875  5375  4  303 304 433 432 
376  5625  5125  5  423 432 434 431 427 
377  5875  5125  4  432 433 435 434 
378  6250  5250  5  304 305 436 435 433 
379  6750  5250  4  305 306 437 436 
380  7250  5250  4  306 307 438 437 
381  7750  5250  4  307 308 439 438 
382  8250  5250  4  308 309 440 439 
383  8750  5250  4  309 310 441 440 
384  9250  5250  4  310 311 442 441 
385  9750  5250  4  311 312 443 442 
386  250  4750  4  314 313 444 445 
387  750  4750  4  313 315 446 444 
388  1250  4750  4  315 316 447 446 
389  1750  4750  4  316 317 448 447 
390  2250  4750  4  317 318 449 448 
391  2750  4750  4  318 319 450 449 
392  3250  4750  5  319 320 453 451 450 
393  3625  4875  4  320 324 452 453 
394  3875  4875  5  324 325 458 454 452 
395  3625  4625  4  453 452 455 451 
396  3875  4625  5  452 454 467 456 455 
397  4062.5  4937.5  4  325 340 457 458 
398  4187.5  4937.5  4  340 341 459 457 
399  4312.5  4937.5  4  341 342 460 459 
400  4437.5  4937.5  4  342 343 461 460 
401  4062.5  4812.5  4  458 457 462 454 
402  4187.5  4812.5  4  457 459 463 462 
403  4312.5  4812.5  4  459 460 464 463 
404  4437.5  4812.5  4  460 461 465 464 
405  4062.5  4687.5  4  454 462 466 467 
406  4187.5  4687.5  4  462 463 468 466 
407  4312.5  4687.5  4  463 464 469 468 
408  4437.5  4687.5  4  464 465 470 469 
409  4062.5  4562.5  4  467 466 471 456 
410  4187.5  4562.5  4  466 468 472 471 
411  4312.5  4562.5  4  468 469 473 472 
412  4437.5  4562.5  4  469 470 474 473 
413  4562.5  4937.5  5  343 408 409 475 461 
414  4687.5  4937.5  5  409 410 411 476 475 
415  4812.5  4937.5  5  411 412 413 477 476 
416  4937.5  4937.5  5  413 414 415 478 477 
417  4562.5  4812.5  4  461 475 479 465 
418  4687.5  4812.5  4  475 476 480 479 
419  4812.5  4812.5  4  476 477 481 480 
420  4937.5  4812.5  4  477 478 482 481 
421  4562.5  4687.5  4  465 479 483 470 
422  4687.5  4687.5  4  479 480 484 483 
423  4812.5  4687.5  4  480 481 485 484 
424  4937.5  4687.5  4  481 482 486 485 
425  4562.5  4562.5  4  470 483 487 474 
426  4687.5  4562.5  4  483 484 488 487 
427  4812.5  4562.5  4  484 485 489 488 
428  4937.5  4562.5  4  485 486 490 489 
429  5062.5  4937.5  4  415 428 491 478 
430  5187.5  4937.5  4  428 429 492 491 
431  5312.5  4937.5  4  429 430 493 492 
432  5437.5  4937.5  4  430 431 494 493 
433  5062.5  4812.5  4  478 491 495 482 
434  5187.5  4812.5  4  491 492 496 495 
435  5312.5  4812.5  4  492 493 497 496 
436  5437.5  4812.5  4  493 494 498 497 
437  5062.5  4687.5  4  482 495 499 486 
438  5187.5  4687.5  4  495 496 500 499 
439  5312.5  4687.5  4  496 497 501 500 
440  5437.5  4687.5  4  497 498 502 501 
441  5062.5  4562.5  4  486 499 503 490 
442  5187.5  4562.5  4  499 500 504 503 
443  5312.5  4562.5  4  500 501 505 504 
444  5437.5  4562.5  4  501 502 506 505 