BEGIN OPTIONS
  AUXILIARY IFACE
  SAVE_FLOWS
  READASARRAYS
END OPTIONS

BEGIN PERIOD 1
  RECHARGE
    CONSTANT 0.005
  IFACE
    CONSTANT 6
END PERIOD
