BEGIN OPTIONS
  AUXILIARY IFACE
  SAVE_FLOWS
END OPTIONS

BEGIN DIMENSIONS
  MAXBOUND 21
END DIMENSIONS

BEGIN PERIOD 1
  1  20  320.  100000.  318.  6
  1  40  320.  100000.  318.  6
  1  60  320.  100000.  318.  6
  1  80  320.  100000.  318.  6
  1 100  320.  100000.  318.  6
  1 120  320.  100000.  318.  6
  1 140  320.  100000.  318.  6
  1 160  320.  100000.  318.  6
  1 195  320.  100000.  318.  6
  1 266  320.  100000.  318.  6
  1 385  320.  100000.  318.  6
  1 456  320.  100000.  318.  6
  1 491  320.  100000.  318.  6
  1 511  320.  100000.  318.  6
  1 531  320.  100000.  318.  6
  1 551  320.  100000.  318.  6
  1 571  320.  100000.  318.  6
  1 591  320.  100000.  318.  6
  1 611  320.  100000.  318.  6
  1 631  320.  100000.  318.  6
  1 651  320.  100000.  318.  6
END PERIOD
