! Example 1: MODFLOW-2005 discretization file
         3        21        20   1   4   1  NLAY,NROW,NCOL,NPER,ITMUNI,LENUNI
 0 0 0
CONSTANT   5.000E+02  DELR
CONSTANT   5.000E+02  DELC
CONSTANT   4.000000E+02  TOP
CONSTANT   2.200000E+02  BOT layer  1
CONSTANT   2.000000E+02  BOT layer  2
CONSTANT   0.000000E+00  BOT layer  3
   1.000000E+00         1 1.000E+00  SS  PERLEN,NSTP,TSMULT,Ss/tr
