BEGIN OPTIONS
  SAVE_FLOWS
  READASARRAYS
  AUXILIARY IFACE
END OPTIONS

BEGIN PERIOD 1
  RECHARGE
    CONSTANT 0.005
  IFACE
    CONSTANT 6
END PERIOD
