begin options
  PRINT_INPUT
  PRINT_FLOWS
  SAVE_FLOWS
  AUXILIARY IFACE
end options

begin dimensions
  MAXBOUND 21
end dimensions

begin period 1
# river
 1  1 20  320.0  100000.  317.   6
 1  2 20  320.0  100000.  317.   6    
 1  3 20  320.0  100000.  317.   6    
 1  4 20  320.0  100000.  317.   6    
 1  5 20  320.0  100000.  317.   6    
 1  6 20  320.0  100000.  317.   6    
 1  7 20  320.0  100000.  317.   6    
 1  8 20  320.0  100000.  317.   6    
 1  9 20  320.0  100000.  317.   6    
 1 10 20  320.0  100000.  317.   6    
 1 11 20  320.0  100000.  317.   6    
 1 12 20  320.0  100000.  317.   6   
 1 13 20  320.0  100000.  317.   6    
 1 14 20  320.0  100000.  317.   6    
 1 15 20  320.0  100000.  317.   6    
 1 16 20  320.0  100000.  317.   6    
 1 17 20  320.0  100000.  317.   6    
 1 18 20  320.0  100000.  317.   6    
 1 19 20  320.0  100000.  317.   6    
 1 20 20  320.0  100000.  317.   6    
 1 21 20  320.0  100000.  317.   6    
end period
