BEGIN OPTIONS
END OPTIONS

BEGIN GRIDDATA
  STRT LAYERED
  CONSTANT 320.
  CONSTANT 320.
  CONSTANT 320.
END GRIDDATA