BEGIN OPTIONS
  LENGTH_UNITS FEET
  XORIGIN 0.0
  YORIGIN 0.0
  ANGROT 0.0
END OPTIONS

BEGIN DIMENSIONS
  NLAY 3
  NROW 21
  NCOL 20
END DIMENSIONS

BEGIN GRIDDATA
  DELR
    CONSTANT 500.
  DELC
    CONSTANT 500.
  TOP LAYERED
    CONSTANT 350.
  BOTM LAYERED
    CONSTANT 220.
    CONSTANT 200.
    CONSTANT 0.
  IDOMAIN LAYERED
    CONSTANT 1
    CONSTANT 1
    CONSTANT 1
END GRIDDATA