BEGIN OPTIONS
  TIME_UNITS days
END OPTIONS

BEGIN DIMENSIONS
  NPER 3
END DIMENSIONS

BEGIN PERIODDATA
  100000.  1  1.0
   36500. 10  1.5
  100000.  1  1.0
END PERIODDATA
