BEGIN OPTIONS
  BUDGET FILEOUT ex03_mf6.bud
  HEAD FILEOUT ex03_mf6.hed
  HEAD PRINT_FORMAT COLUMNS 20 WIDTH 8 DIGITS 3 FIXED
END OPTIONS

BEGIN PERIOD 1
  SAVE BUDGET ALL
  PRINT BUDGET ALL
  SAVE HEAD ALL
  PRINT HEAD ALL
END PERIOD
