BEGIN Options
END Options

BEGIN Timing
  TDIS6  ex03_mf6.tdis
END Timing

BEGIN Models
  GWF6  ex03_mf6.nam  ex03_mf6
END Models

BEGIN Exchanges
END Exchanges

BEGIN SolutionGroup 1
  MXITER  1
  IMS6  ex03_mf6.ims  ex03_mf6
END SolutionGroup
