# Basic package file for MODFLOW-USG
 FREE UNSTRUCTURED
CONSTANT 1
CONSTANT 1
CONSTANT 1
1.0E+30
CONSTANT 320.0
CONSTANT 320.0
CONSTANT 320.0


